tools/golden/phase8_decks/uuids.dss
// PHASE8_PLAN WP8.6 Uuids fixture: preloads a UUID for the circuit, EVERY
// bus, EVERY ckt element, the library linecode AND the three hashed keys
// the CIM exporter auto-creates (Station=Station=1, GeoRgn=GeoRgn=1,
// SubGeoRgn=SubGeoRgn=1) - any object left out gets a RANDOM v4 at export
// time (NamedObject.pas CreateUUID4), which can never be oracle-pinned.
// The @FIXTURES@ token is replaced with the absolute phase8_decks dir by
// gen_phase8.py and golden_phase8.rs before replay. `export uuids` then
// writes <circ>_EXP_UUIDS.csv fully deterministically (NOTE the probe-
// proven quirk: Text.Result stays EMPTY for this export).
clear
Set DefaultBaseFrequency=60

new circuit.uid basekv=12.47 pu=1.0 phases=3 bus1=src
~ r1=0.4 x1=1.6 r0=1.2 x0=4.2

new linecode.lc nphases=3 r1=0.301 x1=0.667 r0=0.882 x0=2.041 c1=3.4 c0=1.6
~ units=km

new line.l1 bus1=src bus2=b1 linecode=lc length=1.0 units=km
new load.ld1 bus1=b1 phases=3 conn=wye model=1 kv=12.47 kw=300 pf=0.92
new monitor.mon1 element=line.l1 terminal=1 mode=0

set voltagebases=[12.47]
calcvoltagebases
Set maxiterations=100
solve

uuids file=@FIXTURES@/uuids_pre.csv
